*Heading
** Job name: CTS Model name: CTS
** Generated by: Abaqus/CAE 2019
*Preprint, echo=NO, model=NO, history=NO, contact=NO
**
** PARTS
**
*Part, name=Plate
*Node
      1,           0.,           1.
      2,           0.,  0.980000019
      3,           0.,  0.959999979
      4,           0.,  0.939999998
      5,           0.,  0.920000017
      6,           0.,  0.899999976
      7,           0.,  0.879999995
      8,           0.,  0.860000014
      9,           0.,  0.839999974
     10,           0.,  0.819999993
     11,           0.,  0.800000012
     12,           0.,  0.779999971
     13,           0.,   0.75999999
     14,           0.,   0.74000001
     15,           0.,  0.720000029
     16,           0.,  0.699999988
     17,           0.,  0.680000007
     18,           0.,  0.660000026
     19,           0.,  0.639999986
     20,           0.,  0.620000005
** ... 7681 like lines cut
*Element, type=CPE8T, elset=ALL
   1,    1,    2,   53,   52, 2602, 2603, 2604, 2605
   2,    2,    3,   54,   53, 2606, 2607, 2608, 2603
   3,    3,    4,   55,   54, 2609, 2610, 2611, 2607
   4,    4,    5,   56,   55, 2612, 2613, 2614, 2610
   5,    5,    6,   57,   56, 2615, 2616, 2617, 2613
   6,    6,    7,   58,   57, 2618, 2619, 2620, 2616
   7,    7,    8,   59,   58, 2621, 2622, 2623, 2619
   8,    8,    9,   60,   59, 2624, 2625, 2626, 2622
   9,    9,   10,   61,   60, 2627, 2628, 2629, 2625
  10,   10,   11,   62,   61, 2630, 2631, 2632, 2628
  11,   11,   12,   63,   62, 2633, 2634, 2635, 2631
  12,   12,   13,   64,   63, 2636, 2637, 2638, 2634
  13,   13,   14,   65,   64, 2639, 2640, 2641, 2637
  14,   14,   15,   66,   65, 2642, 2643, 2644, 2640
  15,   15,   16,   67,   66, 2645, 2646, 2647, 2643
  16,   16,   17,   68,   67, 2648, 2649, 2650, 2646
  17,   17,   18,   69,   68, 2651, 2652, 2653, 2649
  18,   18,   19,   70,   69, 2654, 2655, 2656, 2652
  19,   19,   20,   71,   70, 2657, 2658, 2659, 2655
  20,   20,   21,   72,   71, 2660, 2661, 2662, 2658
** ... 2480 like lines cut
*Elset, elset=ALL
    1,  2500,     1
*Nset, nset=Load
    1,   52,  103,  154,  205,  256,  307,  358,  409,  460,  511,  562,  613,  664,  715,  766
  817,  868,  919,  970, 1021, 1072, 1123, 1174, 1225, 1276, 1327, 1378, 1429, 1480, 1531, 1582
 1633, 1684, 1735, 1786, 1837, 1888, 1939, 1990, 2041, 2092, 2143, 2194, 2245, 2296, 2347, 2398
 2449, 2500, 2551, 2605, 2755, 2856, 2957, 3058, 3159, 3260, 3361, 3462, 3563, 3664, 3765, 3866
 3967, 4068, 4169, 4270, 4371, 4472, 4573, 4674, 4775, 4876, 4977, 5078, 5179, 5280, 5381, 5482
 5583, 5684, 5785, 5886, 5987, 6088, 6189, 6290, 6391, 6492, 6593, 6694, 6795, 6896, 6997, 7098
 7199, 7300, 7401, 7502, 7603
*Nset, nset=FixY
 1326, 1377, 1428, 1479, 1530, 1581, 1632, 1683, 1734, 1785, 1836, 1887, 1938, 1989, 2040, 2091
 2142, 2193, 2244, 2295, 2346, 2397, 2448, 2499, 2550, 2601, 5276, 5377, 5478, 5579, 5680, 5781
 5882, 5983, 6084, 6185, 6286, 6387, 6488, 6589, 6690, 6791, 6892, 6993, 7094, 7195, 7296, 7397
 7498, 7599, 7700
*Nset, nset=COD
 2551,
*Nset, nset=FixX
 2601,
*Solid Section, elset=ALL, material=Mortor
,
*End Part
**  
**
** ASSEMBLY
**
*Assembly, name=Assembly
**  
*Instance, name=CTS, part=Plate
*End Instance
**  
*End Assembly
**
*Material, name=Mortor
*Depvar
    5,
*User Material, constants=4, UNSYMM, TYPE=MECHANICAL
	1e+9,    0.2,	10.0,	0.002
*User Material, type=thermal, constants=2
	0.2,   2e-3
*Density
	1,
**
**BOUNDARY CONDITIONS
*Boundary
CTS.FixX, 1, 1
CTS.FixY, 2, 2
** ----------------------------------------------------------------
** 
** STEP: Step-1
** 
*STEP,INC=20000,AMPLITUDE=RAMP,NLGEOM,Convert Sdi=No
*COUPLED TEMPERATURE-DISPLACEMENT,DELTMX=100.
5e-4, 1., 1e-5, 5e-4
** 
*Boundary
CTS.Load, 2, 2, 0.006
** 
** OUTPUT REQUESTS
** 
*Restart, write, frequency=0
** 
*NODE PRINT, Nset=CTS.COD, FREQ=1
U
*NODE PRINT, Nset=CTS.Load, FREQ=1
RF
*Output, field
*Element Output, directions=YES
SDV,S,E
*Node Output
RF, U, NT
*End Step