*Heading
** Job name: CTS-3D Model name: Model-1
** Generated by: Abaqus/CAE 2019
*Preprint, echo=NO, model=NO, history=NO, contact=NO
**
** PARTS
**
*Part, name=Part-1
*Node
      1,           0.,           0., 0.0199999996
      2,           0.,           0.,           0.
      3, 0.0199999996,           0., 0.0199999996
      4, 0.0199999996,           0.,           0.
      5, 0.0399999991,           0., 0.0199999996
      6, 0.0399999991,           0.,           0.
      7, 0.0599999987,           0., 0.0199999996
      8, 0.0599999987,           0.,           0.
      9, 0.0799999982,           0., 0.0199999996
     10, 0.0799999982,           0.,           0.
     11,  0.100000001,           0., 0.0199999996
     12,  0.100000001,           0.,           0.
     13,  0.119999997,           0., 0.0199999996
     14,  0.119999997,           0.,           0.
     15,  0.140000001,           0., 0.0199999996
     16,  0.140000001,           0.,           0.
     17,  0.159999996,           0., 0.0199999996
     18,  0.159999996,           0.,           0.
     19,  0.180000007,           0., 0.0199999996
     20,  0.180000007,           0.,           0.
** ... 17983 like lines cut
*Element, type=C3D20T
   1,   103,   104,   106,   105,     1,     2,     4,     3,  5206,  5205,  5204,  5203,  5207,  5208,  5209,
       5210,  5212,  5211,  5213,  5214
   2,   105,   106,   108,   107,     3,     4,     6,     5,  5204,  5217,  5216,  5215,  5209,  5218,  5219,
       5220,  5214,  5213,  5221,  5222
   3,   107,   108,   110,   109,     5,     6,     8,     7,  5216,  5225,  5224,  5223,  5219,  5226,  5227,
       5228,  5222,  5221,  5229,  5230
   4,   109,   110,   112,   111,     7,     8,    10,     9,  5224,  5233,  5232,  5231,  5227,  5234,  5235,
       5236,  5230,  5229,  5237,  5238
   5,   111,   112,   114,   113,     9,    10,    12,    11,  5232,  5241,  5240,  5239,  5235,  5242,  5243,
       5244,  5238,  5237,  5245,  5246
   6,   113,   114,   116,   115,    11,    12,    14,    13,  5240,  5249,  5248,  5247,  5243,  5250,  5251,
       5252,  5246,  5245,  5253,  5254
   7,   115,   116,   118,   117,    13,    14,    16,    15,  5248,  5257,  5256,  5255,  5251,  5258,  5259,
       5260,  5254,  5253,  5261,  5262
   8,   117,   118,   120,   119,    15,    16,    18,    17,  5256,  5265,  5264,  5263,  5259,  5266,  5267,
       5268,  5262,  5261,  5269,  5270
   9,   119,   120,   122,   121,    17,    18,    20,    19,  5264,  5273,  5272,  5271,  5267,  5274,  5275,
       5276,  5270,  5269,  5277,  5278
  10,   121,   122,   124,   123,    19,    20,    22,    21,  5272,  5281,  5280,  5279,  5275,  5282,  5283,
       5284,  5278,  5277,  5285,  5286
** ... 4980 like lines cut
*Nset, nset=Set-1, generate
     1,  18003,      1
*Elset, elset=Set-1, generate
    1,  2500,     1
** Section: Section-1
*Solid Section, elset=Set-1, material=Material-1
,
*End Part
**  
**
** ASSEMBLY
**
*Assembly, name=Assembly
**  
*Instance, name=Part-1-1, part=Part-1
*End Instance
**  
*Nset, nset=FixX, instance=Part-1-1
  101,  102, 5603
*Elset, elset=FixX, instance=Part-1-1
 50,
*Nset, nset=FixY, instance=Part-1-1
   51,   52,   53,   54,   55,   56,   57,   58,   59,   60,   61,   62,   63,   64,   65,   66
   67,   68,   69,   70,   71,   72,   73,   74,   75,   76,   77,   78,   79,   80,   81,   82
   83,   84,   85,   86,   87,   88,   89,   90,   91,   92,   93,   94,   95,   96,   97,   98
   99,  100,  101,  102, 5403, 5410, 5411, 5412, 5418, 5419, 5420, 5426, 5427, 5428, 5434, 5435
 5436, 5442, 5443, 5444, 5450, 5451, 5452, 5458, 5459, 5460, 5466, 5467, 5468, 5474, 5475, 5476
 5482, 5483, 5484, 5490, 5491, 5492, 5498, 5499, 5500, 5506, 5507, 5508, 5514, 5515, 5516, 5522
 5523, 5524, 5530, 5531, 5532, 5538, 5539, 5540, 5546, 5547, 5548, 5554, 5555, 5556, 5562, 5563
 5564, 5570, 5571, 5572, 5578, 5579, 5580, 5586, 5587, 5588, 5594, 5595, 5596, 5602, 5603, 5604
*Elset, elset=FixY, instance=Part-1-1, generate
 26,  50,   1
*Nset, nset=FixZ, instance=Part-1-1
     2,     4,     6,     8,    10,    12,    14,    16,    18,    20,    22,    24,    26,    28,    30,    32
    34,    36,    38,    40,    42,    44,    46,    48,    50,    52,    54,    56,    58,    60,    62,    64
    66,    68,    70,    72,    74,    76,    78,    80,    82,    84,    86,    88,    90,    92,    94,    96
    98,   100,   102,   104,   106,   108,   110,   112,   114,   116,   118,   120,   122,   124,   126,   128
   130,   132,   134,   136,   138,   140,   142,   144,   146,   148,   150,   152,   154,   156,   158,   160
   162,   164,   166,   168,   170,   172,   174,   176,   178,   180,   182,   184,   186,   188,   190,   192
   194,   196,   198,   200,   202,   204,   206,   208,   210,   212,   214,   216,   218,   220,   222,   224
   226,   228,   230,   232,   234,   236,   238,   240,   242,   244,   246,   248,   250,   252,   254,   256
   258,   260,   262,   264,   266,   268,   270,   272,   274,   276,   278,   280,   282,   284,   286,   288
   290,   292,   294,   296,   298,   300,   302,   304,   306,   308,   310,   312,   314,   316,   318,   320
   322,   324,   326,   328,   330,   332,   334,   336,   338,   340,   342,   344,   346,   348,   350,   352
   354,   356,   358,   360,   362,   364,   366,   368,   370,   372,   374,   376,   378,   380,   382,   384
   386,   388,   390,   392,   394,   396,   398,   400,   402,   404,   406,   408,   410,   412,   414,   416
   418,   420,   422,   424,   426,   428,   430,   432,   434,   436,   438,   440,   442,   444,   446,   448
   450,   452,   454,   456,   458,   460,   462,   464,   466,   468,   470,   472,   474,   476,   478,   480
   482,   484,   486,   488,   490,   492,   494,   496,   498,   500,   502,   504,   506,   508,   510,   512
   514,   516,   518,   520,   522,   524,   526,   528,   530,   532,   534,   536,   538,   540,   542,   544
   546,   548,   550,   552,   554,   556,   558,   560,   562,   564,   566,   568,   570,   572,   574,   576
   578,   580,   582,   584,   586,   588,   590,   592,   594,   596,   598,   600,   602,   604,   606,   608
   610,   612,   614,   616,   618,   620,   622,   624,   626,   628,   630,   632,   634,   636,   638,   640
** ... 462 like lines cut
*Elset, elset=FixZ, instance=Part-1-1, generate
    1,  2500,     1
*Nset, nset=Load, instance=Part-1-1
  5101,  5102,  5103,  5104,  5105,  5106,  5107,  5108,  5109,  5110,  5111,  5112,  5113,  5114,  5115,  5116
  5117,  5118,  5119,  5120,  5121,  5122,  5123,  5124,  5125,  5126,  5127,  5128,  5129,  5130,  5131,  5132
  5133,  5134,  5135,  5136,  5137,  5138,  5139,  5140,  5141,  5142,  5143,  5144,  5145,  5146,  5147,  5148
  5149,  5150,  5151,  5152,  5153,  5154,  5155,  5156,  5157,  5158,  5159,  5160,  5161,  5162,  5163,  5164
  5165,  5166,  5167,  5168,  5169,  5170,  5171,  5172,  5173,  5174,  5175,  5176,  5177,  5178,  5179,  5180
  5181,  5182,  5183,  5184,  5185,  5186,  5187,  5188,  5189,  5190,  5191,  5192,  5193,  5194,  5195,  5196
  5197,  5198,  5199,  5200,  5201,  5202, 17751, 17752, 17753, 17754, 17759, 17760, 17761, 17764, 17765, 17766
 17769, 17770, 17771, 17774, 17775, 17776, 17779, 17780, 17781, 17784, 17785, 17786, 17789, 17790, 17791, 17794
 17795, 17796, 17799, 17800, 17801, 17804, 17805, 17806, 17809, 17810, 17811, 17814, 17815, 17816, 17819, 17820
 17821, 17824, 17825, 17826, 17829, 17830, 17831, 17834, 17835, 17836, 17839, 17840, 17841, 17844, 17845, 17846
 17849, 17850, 17851, 17854, 17855, 17856, 17859, 17860, 17861, 17864, 17865, 17866, 17869, 17870, 17871, 17874
 17875, 17876, 17879, 17880, 17881, 17884, 17885, 17886, 17889, 17890, 17891, 17894, 17895, 17896, 17899, 17900
 17901, 17904, 17905, 17906, 17909, 17910, 17911, 17914, 17915, 17916, 17919, 17920, 17921, 17924, 17925, 17926
 17929, 17930, 17931, 17934, 17935, 17936, 17939, 17940, 17941, 17944, 17945, 17946, 17949, 17950, 17951, 17954
 17955, 17956, 17959, 17960, 17961, 17964, 17965, 17966, 17969, 17970, 17971, 17974, 17975, 17976, 17979, 17980
 17981, 17984, 17985, 17986, 17989, 17990, 17991, 17994, 17995, 17996, 17999, 18000, 18001
*Elset, elset=Load, instance=Part-1-1, generate
 2451,  2500,     1
*End Assembly
** 
** MATERIALS
** 
*Material, name=Material-1
*Depvar
    5,
*User Material, constants=4,UNSYMM,TYPE=MECHANICAL
	1e+9,    0.2,	10.0,	0.002
*User Material, type=thermal, constants=2
	0.2,   2e-3
*density
	1,
** ----------------------------------------------------------------
** 
** STEP: Step-1
** 
*STEP,INC=20000,AMPLITUDE=RAMP,NLGEOM,Convert Sdi=No
*COUPLED TEMPERATURE-DISPLACEMENT,DELTMX=100.
5e-4, 1., 1e-5, 5e-4
** 
** BOUNDARY CONDITIONS
** 
** Name: BC-1 Type: Displacement/Rotation
*Boundary
Load, 2, 2, 0.006
** Name: BC-2 Type: Displacement/Rotation
*Boundary
FixZ, 3, 3
** Name: BC-3 Type: Displacement/Rotation
*Boundary
FixY, 2, 2
** Name: BC-4 Type: Displacement/Rotation
*Boundary
FixX, 1, 1
** 
** OUTPUT REQUESTS
** 
*Restart, write, frequency=0
** 
*NODE PRINT, Nset=Load, FREQ=1
RF
*Output, field
*Element Output, directions=YES
SDV,S,E
*Node Output
RF, U, NT
*End Step
